
  -ISIS-  04040509483D

 21 30  0  0  0  0  0  0  0  0999 V2000
    4.5627   -1.9708    0.0002 Fe  0  0  0  0  0  0  0  0  0  0  0  0
    5.7238   -3.5156    0.5929 C   0  0  2  0  0  0  0  0  0  0  0  0
    3.4007   -0.4260   -0.5917 C   0  0  1  0  0  0  0  0  0  0  0  0
    4.5735   -3.9837    0.0069 C   0  0  1  0  0  0  0  0  0  0  0  0
    4.5518    0.0421   -0.0072 C   0  0  2  0  0  0  0  0  0  0  0  0
    3.7849   -1.1768   -1.6783 C   0  0  1  0  0  0  0  0  0  0  0  0
    5.3406   -2.7647    1.6788 C   0  0  2  0  0  0  0  0  0  0  0  0
    3.5156   -3.5406    0.7248 C   0  0  1  0  0  0  0  0  0  0  0  0
    5.6088   -0.4010   -0.7267 C   0  0  2  0  0  0  0  0  0  0  0  0
    5.1343   -1.1571   -1.7603 C   0  0  1  0  0  0  0  0  0  0  0  0
    3.9952   -2.7844    1.7621 C   0  0  2  0  0  0  0  0  0  0  0  0
    6.4320   -3.5405    0.2863 H   0  0  0  0  0  0  0  0  0  0  0  0
    2.6945   -0.4011   -0.2867 H   0  0  0  0  0  0  0  0  0  0  0  0
    5.7442   -2.3085    2.2589 H   0  0  0  0  0  0  0  0  0  0  0  0
    4.3944   -4.4479   -0.6714 H   0  0  0  0  0  0  0  0  0  0  0  0
    3.3813   -1.6330   -2.2587 H   0  0  0  0  0  0  0  0  0  0  0  0
    4.7301    0.5063    0.6716 H   0  0  0  0  0  0  0  0  0  0  0  0
    3.3449   -2.3348    2.2565 H   0  0  0  0  0  0  0  0  0  0  0  0
    5.7805   -1.6068   -2.2567 H   0  0  0  0  0  0  0  0  0  0  0  0
    6.5345   -0.4097   -0.6138 H   0  0  0  0  0  0  0  0  0  0  0  0
    2.5908   -3.5319    0.6152 H   0  0  0  0  0  0  0  0  0  0  0  0
  1  2  1  0  0  0  0
  1  3  1  0  0  0  0
  1  4  1  0  0  0  0
  1  5  1  0  0  0  0
  1  6  1  6  0  0  0
  1  7  1  1  0  0  0
  1  8  1  0  0  0  0
  1  9  1  0  0  0  0
  1 10  1  6  0  0  0
  1 11  1  1  0  0  0
  2  4  1  0  0  0  0
  2  7  1  1  0  0  0
  2 12  1  0  0  0  0
  3  5  1  0  0  0  0
  3  6  1  6  0  0  0
  3 13  1  0  0  0  0
  4  8  1  1  0  0  0
  4 15  1  6  0  0  0
  5  9  1  6  0  0  0
  5 17  1  1  0  0  0
  6 10  1  0  0  0  0
  6 16  1  6  0  0  0
  7 11  1  0  0  0  0
  7 14  1  1  0  0  0
  8 11  1  1  0  0  0
  8 21  1  0  0  0  0
  9 10  1  6  0  0  0
  9 20  1  0  0  0  0
 10 19  1  6  0  0  0
 11 18  1  1  0  0  0
M  END
