
  -ISIS-  03090714573D

 11 12  0  0  0  0  0  0  0  0999 V2000
    1.7206   -5.0440   -0.3613 C   0  0  0  0  0  0  0  0  0  0  0  0
    1.8458   -5.7247   -0.1692 C   0  0  0  0  0  0  0  0  0  0  0  0
    2.4988   -5.9206    0.0084 C   0  0  0  0  0  0  0  0  0  0  0  0
    2.2339   -4.5920   -0.3474 C   0  0  0  0  0  0  0  0  0  0  0  0
    2.8860   -4.7738   -0.1516 C   0  0  0  0  0  0  0  0  0  0  0  0
    3.0209   -5.4442    0.0580 C   0  0  0  0  0  0  0  0  0  0  0  0
    3.6800   -5.6276    0.2415 C   0  0  0  0  0  0  0  0  0  0  0  0
    4.1989   -5.1405    0.2426 C   0  0  0  0  0  0  0  0  0  0  0  0
    4.0561   -4.5147    0.2165 C   0  0  0  0  0  0  0  0  0  0  0  0
    3.4155   -4.2901   -0.1330 C   0  0  0  0  0  0  0  0  0  0  0  0
    2.7584   -5.1761    0.5400 C   0  0  0  0  0  0  0  0  0  0  0  0
  2  3  1  0  0  0  0
  3  6  2  0  0  0  0
  6  7  1  0  0  0  0
  1  2  2  0  0  0  0
  7  8  2  0  0  0  0
  5  4  2  0  0  0  0
  8  9  1  0  0  0  0
  4  1  1  0  0  0  0
  9 10  2  0  0  0  0
 10  5  1  0  0  0  0
  6 11  1  0  0  0  0
 11  5  1  0  0  0  0
M  END
